Circuit: * C:\Users\srava\OneDrive\Desktop\SEM-6\19ECE384-Open Lab (BMI-lab)\Triangular\Draft1.asc

Direct Newton iteration for .op point succeeded.

Date: Wed Jan 31 15:51:14 2024
Total elapsed time: 0.065 seconds.

tnom = 27
temp = 27
method = modified trap
totiter = 2095
traniter = 2082
tranpoints = 1042
accept = 1042
rejected = 0
matrix size = 36
fillins = 58
solver = Normal
Matrix Compiler1: 4.57 KB object code size  0.9/0.3/[0.3]
Matrix Compiler2: off  [0.3]/0.3/0.3

