Circuit: * C:\Users\srava\OneDrive\Desktop\SEM-6\19ECE384-Open Lab (BMI-lab)\Triangular\Triangular.asc

WARNING: Less than two connections to node NC_01.  This node is used by R5.
Direct Newton iteration for .op point succeeded.

Date: Thu Feb 15 12:03:47 2024
Total elapsed time: 1.213 seconds.

tnom = 27
temp = 27
method = modified trap
totiter = 164348
traniter = 164335
tranpoints = 50102
accept = 34671
rejected = 15431
matrix size = 70
fillins = 132
solver = Normal
Matrix Compiler1:     591 opcodes  2.0/[0.6]/0.7
Matrix Compiler2: off  [0.5]/0.6/0.5

