Circuit: * C:\Users\srava\OneDrive\Desktop\SEM-6\19ECE384-Open Lab (BMI-lab)\Sine\sinee.asc

WARNING: Less than two connections to node NC_01.  This node is used by R5.
Direct Newton iteration for .op point succeeded.

Date: Thu Feb 08 11:40:35 2024
Total elapsed time: 0.155 seconds.

tnom = 27
temp = 27
method = modified trap
totiter = 8334
traniter = 8322
tranpoints = 2869
accept = 2209
rejected = 660
matrix size = 40
fillins = 56
solver = Normal
Matrix Compiler1:     257 opcodes  1.3/[0.4]/0.5
Matrix Compiler2: off  [0.4]/0.5/0.5

