Circuit: * C:\Users\srava\OneDrive\Desktop\SEM-6\19ECE384-Open Lab (BMI-lab)\Sine\wien_bridge(20HZ_TO_100HZ)_with_square[1].asc

Direct Newton iteration for .op point succeeded.

Date: Sun Jun 02 07:03:44 2024
Total elapsed time: 39.898 seconds.

tnom = 27
temp = 27
method = modified trap
totiter = 2530547
traniter = 2530526
tranpoints = 654699
accept = 480268
rejected = 174431
matrix size = 226
fillins = 432
solver = Normal
Thread vector: 11.0/5.3[4] 2.9/3.0[1] 2.9/2.2[4] 0.9/0.9[1]  2592/500
Matrix Compiler1: 34.79 KB object code size  7.0/2.5/[2.3]
Matrix Compiler2: 25.67 KB object code size  1.7/1.7/[1.6]

