Circuit: * C:\Users\srava\OneDrive\Desktop\SEM-6\19ECE384-Open Lab (BMI-lab)\Sawtooth\Sawtooth.asc

Direct Newton iteration for .op point succeeded.

Date: Thu Apr 11 10:47:42 2024
Total elapsed time: 0.158 seconds.

tnom = 27
temp = 27
method = modified trap
totiter = 5062
traniter = 5050
tranpoints = 1883
accept = 1582
rejected = 301
matrix size = 73
fillins = 132
solver = Normal
Matrix Compiler1: 11.04 KB object code size  5.7/3.7/[1.0]
Matrix Compiler2: 8.24 KB object code size  1.0/1.3/[0.9]

