Circuit: * C:\Users\srava\OneDrive\Desktop\SEM-6\19ECE384-Open Lab (BMI-lab)\Final\Final perfect.asc

Direct Newton iteration for .op point succeeded.
