Circuit: * C:\Users\srava\OneDrive\Desktop\SEM-6\19ECE384-Open Lab (BMI-lab)\Final\Final_circuit_simulation_openlab[1].asc

R20: both pins shorted together -- ignoring.
Early termination of direct N-R iteration.
Direct Newton iteration failed to find .op point.  (Use ".option noopiter" to skip.)
Starting Gmin stepping
Increasing initial diagonal Gmin to 100
Increasing initial diagonal Gmin to 1000
Gmin = 1000
vernier = 0.5
vernier = 0.25
vernier = 0.125
vernier = 0.0625
Gmin = 836.601
vernier = 0.03125
vernier = 0.015625
vernier = 0.0078125
vernier = 0.00390625
Gmin = 817.345
vernier = 0.00195313
vernier = 0.000976563
vernier = 0.000488281
Gmin = 815.95
Gmin = 0
Gmin stepping succeeded in finding the operating point.


Date: Sat Jun 01 19:28:11 2024
Total elapsed time: 4.993 seconds.

tnom = 27
temp = 27
method = modified trap
totiter = 144081
traniter = 142391
tranpoints = 39300
accept = 30095
rejected = 9205
matrix size = 238
fillins = 737
solver = Normal
Thread vector: 16.7/10.7[5] 7.4/4.1[5] 7.1/4.5[5] 1.2/1.6[1]  2592/500
Matrix Compiler1: 74.77 KB object code size  17.0/7.7/[5.1]
Matrix Compiler2: off  [3.1]/4.3/3.9

