Circuit: * C:\Users\srava\OneDrive\Desktop\SEM-6\19ECE384-Open Lab (BMI-lab)\Square wave.asc

Direct Newton iteration for .op point succeeded.
.step x=1000 y=1000
Heightened Def Con from 0.316027 to 0.316027
