Circuit: * C:\Users\srava\OneDrive\Desktop\SEM-6\19ECE384-Open Lab (BMI-lab)\Square\Square wave without pot.asc

Direct Newton iteration for .op point succeeded.

Date: Thu Feb 08 12:10:15 2024
Total elapsed time: 0.124 seconds.

tnom = 27
temp = 27
method = modified trap
totiter = 4371
traniter = 4359
tranpoints = 1497
accept = 1328
rejected = 169
matrix size = 36
fillins = 56
solver = Normal
Matrix Compiler1:     247 opcodes  1.2/[0.4]/0.5
Matrix Compiler2: off  [0.4]/0.4/0.5

