Circuit: * C:\Users\srava\OneDrive\Desktop\SEM-6\19ECE384-Open Lab (BMI-lab)\Square\wien_bridgesine_to_square[1].asc

Direct Newton iteration for .op point succeeded.

Date: Thu Feb 15 12:46:02 2024
Total elapsed time: 0.096 seconds.

tnom = 27
temp = 27
method = modified trap
totiter = 4745
traniter = 4727
tranpoints = 1688
accept = 1490
rejected = 198
matrix size = 72
fillins = 117
solver = Normal
Matrix Compiler1: 9.62 KB object code size  1.6/0.5/[0.5]
Matrix Compiler2: off  [0.4]/0.5/0.6

